/*--------------------------------*- C++ -*----------------------------------*\
| =========                 |                                                 |
| \\      /  F ield         | OpenFOAM: The Open Source CFD Toolbox           |
|  \\    /   O peration     | Version:  v2012                                 |
|   \\  /    A nd           | Website:  www.openfoam.com                      |
|    \\/     M anipulation  |                                                 |
\*---------------------------------------------------------------------------*/
FoamFile
{
    version     2.0;
    format      ascii;
    class       dictionary;
    object      createPatchDict;
}
// * * * * * * * * * * * * * * * * * * * * * * * * * * * * * * * * * * * * * //

pointSync false;


patches
(

    {
        // Name of new patch
        name front;

        // Type of new patch
        patchInfo
        {
            type        cyclic;
            neighbourPatch  back;
            transform translational;
            seprationVector (0 0 -0.03);
        }

        constructFrom  patches;
        patches (front);
        set f0;
    }


    {
        // Name of new patch
        name back;

        // Type of new patch
        patchInfo
        {
            type        cyclic;
            neighbourPatch  front;
            transform translational;
            seprationVector (0 0 0.03);
        }

        constructFrom  patches;
        patches (back);
        set f0;
    }

);
